/*--------------------------------*- C++ -*----------------------------------*\
| =========                 |                                                 |
| \\      /  F ield         | OpenFOAM: The Open Source CFD Toolbox           |
|  \\    /   O peration     | Version:  4.x                                   |
|   \\  /    A nd           | Web:      www.OpenFOAM.org                      |
|    \\/     M anipulation  |                                                 |
\*---------------------------------------------------------------------------*/
FoamFile
{
    version     2.0;
    format      ascii;
    class       dictionary;
    object      fvSolution;
}
// * * * * * * * * * * * * * * * * * * * * * * * * * * * * * * * * * * * * * //

solvers
{
    p
    {
        solver          PCG;
        preconditioner  DIC;
        tolerance       1e-6;
        relTol          0.001;
	maxIter		100;
    }


    U
    {
        solver 		PBiCG;
        preconditioner  DILU;
        tolerance	1e-8;
        relTol		0;
	maxIter		100;
    }


    "(k|omega|epsilon)"
    {
        solver          smoothSolver;
        smoother        symGaussSeidel;
        tolerance       1e-6;
        relTol          0.0;
    }
}

SIMPLE
{
    residualControl
    {
        p               1e-4;
        U               1e-4;
        "(k|omega|epsilon)" 1e-4;
    }
    nNonOrthogonalCorrectors 1;
    pRefCell        0;
    pRefValue       0;

}

potentialFlow
{
    nNonOrthogonalCorrectors 10;
}

relaxationFactors
{
    fields
    {
        p               0.3;
    }
    equations
    {
        U               0.7;
        "(k|omega|epsilon).*" 0.7;
    }
}

// ************************************************************************* //
